

! ===== NOME_SUB =====
!coord_(-12.582191, -55.707683)_nome_SE SORRISO RURAL II 69 KV_ctmt_777230_cod_205 


! ===== SLACK =====
New Object = Circuit.777230 basekv = 34.5 pu = 1.0 angle = 0 
New line.205_777230_ phases = 3 bus1 = SourceBus.1.2.3 bus2 = 279116373.1.2.3 switch = y

 


! ===== LINECODES =====
New linecode.16512355M-3 nphases=3 BaseFreq=60  r1=0.00136900 x1=0.00026000 c1=0.00000001  Normamps=80.0 Emergamps=112.0

 
New linecode.107719291M-3N nphases=3 BaseFreq=60  r1=0.00028900 x1=0.00027100 c1=0.00000001  Normamps=229.0 Emergamps=321.0

 
New linecode.16512345M-1N nphases=3 BaseFreq=60  r1=0.00351400 x1=0.00011000 c1=0.00000001  Normamps=55.0 Emergamps=77.0

 
New linecode.107719289M-3P nphases=3 BaseFreq=60  r1=0.00099100 x1=0.00031500 c1=0.00000001  Normamps=100.0 Emergamps=140.0

 
New linecode.5281626M-3P nphases=3 BaseFreq=60  r1=0.00351500 x1=0.00009700 c1=0.00000001  Normamps=46.0 Emergamps=46.0

 
New linecode.16512346M-3P nphases=3 BaseFreq=60  r1=0.00351400 x1=0.00011000 c1=0.00000001  Normamps=44.0 Emergamps=62.0

 
New linecode.16512352M-3P nphases=3 BaseFreq=60  r1=0.00217900 x1=0.00018600 c1=0.00000001  Normamps=59.0 Emergamps=83.0

 
New linecode.16512355M-3P nphases=3 BaseFreq=60  r1=0.00136900 x1=0.00026000 c1=0.00000001  Normamps=80.0 Emergamps=112.0

 
New linecode.16512345M-3P nphases=3 BaseFreq=60  r1=0.00351400 x1=0.00011000 c1=0.00000001  Normamps=55.0 Emergamps=77.0

 
New linecode.16512332H-3P nphases=3 BaseFreq=60  r1=0.00155100 x1=0.00035600 c1=0.00000001  Normamps=130.0 Emergamps=182.0

 
New linecode.16512376H-3 nphases=3 BaseFreq=60  r1=0.00019500 x1=0.00029100 c1=0.00000001  Normamps=495.0 Emergamps=693.0

 
New linecode.16512329H-1P nphases=3 BaseFreq=60  r1=0.00097500 x1=0.00034700 c1=0.00000001  Normamps=175.0 Emergamps=245.0

 
New linecode.549714H-3 nphases=3 BaseFreq=60  r1=0.00018800 x1=0.00038000 c1=0.00000001  Normamps=525.0 Emergamps=735.0

 
New linecode.16512329H-3 nphases=3 BaseFreq=60  r1=0.00097500 x1=0.00034700 c1=0.00000001  Normamps=175.0 Emergamps=245.0

 
New linecode.16512380H-3 nphases=3 BaseFreq=60  r1=0.00061300 x1=0.00033000 c1=0.00000001  Normamps=230.0 Emergamps=322.0

 
New linecode.16512375H-3 nphases=3 BaseFreq=60  r1=0.00019500 x1=0.00029100 c1=0.00000001  Normamps=495.0 Emergamps=693.0

 
New linecode.16512329H-3P nphases=3 BaseFreq=60  r1=0.00097500 x1=0.00034700 c1=0.00000001  Normamps=175.0 Emergamps=245.0

 
New linecode.16512384H-3 nphases=3 BaseFreq=60  r1=0.00030600 x1=0.00028900 c1=0.00000001  Normamps=350.0 Emergamps=490.0

 
New linecode.16512329H-1 nphases=3 BaseFreq=60  r1=0.00097500 x1=0.00034700 c1=0.00000001  Normamps=175.0 Emergamps=245.0

 
New linecode.16512329H-1 nphases=3 BaseFreq=60  r1=0.00097500 x1=0.00034700 c1=0.00000001  Normamps=175.0 Emergamps=245.0

 
New linecode.16512329H-1 nphases=3 BaseFreq=60  r1=0.00097500 x1=0.00034700 c1=0.00000001  Normamps=175.0 Emergamps=245.0

 
New linecode.16512332H-1 nphases=3 BaseFreq=60  r1=0.00155100 x1=0.00035600 c1=0.00000001  Normamps=130.0 Emergamps=182.0

 
New linecode.16512332H-1 nphases=3 BaseFreq=60  r1=0.00155100 x1=0.00035600 c1=0.00000001  Normamps=130.0 Emergamps=182.0

 
New linecode.5281628C-3 nphases=3 BaseFreq=60  r1=0.00024700 x1=0.00025900 c1=0.00000001  Normamps=291.0 Emergamps=291.0

 
New linecode.45225708H-1 nphases=3 BaseFreq=60  r1=0.00228700 x1=0.00018600 c1=0.00000001  Normamps=71.0 Emergamps=99.0

 
New linecode.45225708H-1 nphases=3 BaseFreq=60  r1=0.00228700 x1=0.00018600 c1=0.00000001  Normamps=71.0 Emergamps=99.0

 
New linecode.45225708H-1 nphases=3 BaseFreq=60  r1=0.00228700 x1=0.00018600 c1=0.00000001  Normamps=71.0 Emergamps=99.0

 
New linecode.16512332H-3 nphases=3 BaseFreq=60  r1=0.00155100 x1=0.00035600 c1=0.00000001  Normamps=130.0 Emergamps=182.0

 
New linecode.16512329H-2 nphases=3 BaseFreq=60  r1=0.00097500 x1=0.00034700 c1=0.00000001  Normamps=175.0 Emergamps=245.0

 
New linecode.16512335H-1 nphases=3 BaseFreq=60  r1=0.00246900 x1=0.00018600 c1=0.00000001  Normamps=95.0 Emergamps=133.0

 
New linecode.16512335H-1 nphases=3 BaseFreq=60  r1=0.00246900 x1=0.00018600 c1=0.00000001  Normamps=95.0 Emergamps=133.0

 


! ===== LINHAS =====
New Line.13475839 Phases=3 Bus1=66007816859876541MT.1.2.3 Bus2=66009302859881589MT.1.2.3 Linecode=16512329H-3P Length=52.622 units=m

New Line.13475840 Phases=3 Bus1=66209309859735557MT.1.2.3 Bus2=66199577859736727MT.1.2.3 Linecode=16512329H-3P Length=94.29 units=m

New Line.13475841 Phases=3 Bus1=66111609859746921MT.1.2.3 Bus2=66106152859755737MT.1.2.3 Linecode=16512329H-3P Length=100.429 units=m

New Line.13478579 Phases=3 Bus1=64218060860840302MT.1.2.3 Bus2=64223078860837083MT.1.2.3 Linecode=16512375H-3 Length=59.617 units=m

New Line.13478580 Phases=3 Bus1=64223078860837083MT.1.2.3 Bus2=64228225860833939MT.1.2.3 Linecode=16512375H-3 Length=60.313 units=m

New Line.13478581 Phases=3 Bus1=64277679860801938MT.1.2.3 Bus2=64283872860797746MT.1.2.3 Linecode=16512375H-3 Length=74.784 units=m

New Line.13478582 Phases=3 Bus1=64283872860797746MT.1.2.3 Bus2=64288490860794853MT.1.2.3 Linecode=16512375H-3 Length=54.493 units=m

New Line.12470932 Phases=3 Bus1=65861811859337261MT.1.2.3 Bus2=65863108859334421MT.1.2.3 Linecode=16512384H-3 Length=31.221 units=m

New Line.18094503 Phases=3 Bus1=66716686856943665MT.1.2.3 Bus2=66724761856931875MT.1.2.3 Linecode=16512384H-3 Length=142.902 units=m

New Line.18094504 Phases=3 Bus1=66709128856955021MT.1.2.3 Bus2=66716686856943665MT.1.2.3 Linecode=16512384H-3 Length=136.412 units=m

New Line.18094505 Phases=3 Bus1=66701276856967116MT.1.2.3 Bus2=66709128856955021MT.1.2.3 Linecode=16512384H-3 Length=144.202 units=m

New Line.18094506 Phases=3 Bus1=66693414856978926MT.1.2.3 Bus2=66701276856967116MT.1.2.3 Linecode=16512384H-3 Length=141.876 units=m

New Line.18094507 Phases=3 Bus1=66685665856990137MT.1.2.3 Bus2=66693414856978926MT.1.2.3 Linecode=16512384H-3 Length=134.692 units=m

New Line.18094508 Phases=3 Bus1=66787753856838113MT.1.2.3 Bus2=66795938856826537MT.1.2.3 Linecode=16512384H-3 Length=141.774 units=m

New Line.18094509 Phases=3 Bus1=66678082857001510MT.1.2.3 Bus2=66685665856990137MT.1.2.3 Linecode=16512384H-3 Length=136.692 units=m

New Line.18094510 Phases=3 Bus1=66668122857016308MT.1.2.3 Bus2=66678082857001510MT.1.2.3 Linecode=16512384H-3 Length=178.377 units=m

New Line.18094511 Phases=3 Bus1=66658512857030703MT.1.2.3 Bus2=66668122857016308MT.1.2.3 Linecode=16512384H-3 Length=173.08 units=m

New Line.18094484 Phases=3 Bus1=68112914857059100MT.1.2.3 Bus2=68126406857058846MT.1.2.3 Linecode=16512329H-1 Length=134.944 units=m

New Line.18094486 Phases=3 Bus1=67818723857063086MT.1.2.3 Bus2=67830266857063288MT.1.2.3 Linecode=16512329H-1 Length=115.448 units=m

New Line.18094487 Phases=3 Bus1=67830266857063288MT.1.2.3 Bus2=67842490857063026MT.1.2.3 Linecode=16512329H-1 Length=122.268 units=m

New Line.18094488 Phases=3 Bus1=67842490857063026MT.1.2.3 Bus2=67853016857063214MT.1.2.3 Linecode=16512329H-1 Length=105.277 units=m

New Line.18094489 Phases=3 Bus1=67853016857063214MT.1.2.3 Bus2=67864448857063050MT.1.2.3 Linecode=16512329H-1 Length=114.332 units=m

New Line.18095112 Phases=3 Bus1=65954353859139608MT.1.2.3 Bus2=65961469859124335MT.1.2.3 Linecode=16512384H-3 Length=168.494 units=m

New Line.18095113 Phases=3 Bus1=65946933859154800MT.1.2.3 Bus2=65954353859139608MT.1.2.3 Linecode=16512384H-3 Length=169.072 units=m

New Line.18095114 Phases=3 Bus1=65939553859170909MT.1.2.3 Bus2=65946933859154800MT.1.2.3 Linecode=16512384H-3 Length=177.19 units=m

New Line.18095417 Phases=3 Bus1=67103908859268005MT.1.2.3 Bus2=67115960859273519MT.1.2.3 Linecode=16512329H-3 Length=132.535 units=m

New Line.18095418 Phases=3 Bus1=67115960859273519MT.1.2.3 Bus2=67127668859278997MT.1.2.3 Linecode=16512329H-3 Length=129.262 units=m

New Line.18095419 Phases=3 Bus1=67127668859278997MT.1.2.3 Bus2=67139623859284414MT.1.2.3 Linecode=16512329H-3 Length=131.25 units=m

New Line.18095420 Phases=3 Bus1=67139623859284414MT.1.2.3 Bus2=67152174859290575MT.1.2.3 Linecode=16512329H-3 Length=136.113 units=m

New Line.18095421 Phases=3 Bus1=67152174859290575MT.1.2.3 Bus2=67164223859295665MT.1.2.3 Linecode=16512329H-3 Length=130.8 units=m

New Line.18095422 Phases=3 Bus1=67152105859290708MT.1.2.3 Bus2=67146239859302062MT.1.2.3 Linecode=16512329H-3 Length=129.296 units=m

New Line.18095416 Phases=3 Bus1=67092129859262693MT.1.2.3 Bus2=67103908859268005MT.1.2.3 Linecode=16512329H-3 Length=129.214 units=m

New Line.82509309 Phases=3 Bus1=66750670859705135MT.1.2.3 Bus2=66754401859701577MT.1.2.3 Linecode=16512329H-3 Length=51.556 units=m

New Line.82509320 Phases=3 Bus1=66754277859701488MT.1.2.3 Bus2=66748669859697471MT.1.2.3 Linecode=16512329H-3 Length=70.509 units=m

New Line.18097300 Phases=3 Bus1=67798817856715011MT.1.2.3 Bus2=67801382856727985MT.1.2.3 Linecode=45225708H-1 Length=132.251 units=m

New Line.18097301 Phases=3 Bus1=67801382856727985MT.1.2.3 Bus2=67805601856739849MT.1.2.3 Linecode=45225708H-1 Length=125.918 units=m

New Line.18097302 Phases=3 Bus1=67805601856739849MT.1.2.3 Bus2=67810223856751578MT.1.2.3 Linecode=45225708H-1 Length=126.068 units=m

New Line.18092483 Phases=3 Bus1=67543580857758854MT.1.2.3 Bus2=67556595857763636MT.1.2.3 Linecode=16512329H-3 Length=138.657 units=m

New Line.18092484 Phases=3 Bus1=67556595857763636MT.1.2.3 Bus2=67567330857768026MT.1.2.3 Linecode=16512329H-3 Length=115.979 units=m

New Line.18100434 Phases=3 Bus1=66099302858831363MT.1.2.3 Bus2=66105904858821456MT.1.2.3 Linecode=16512384H-3 Length=119.053 units=m

New Line.18100435 Phases=3 Bus1=66095598858837919MT.1.2.3 Bus2=66099302858831363MT.1.2.3 Linecode=16512384H-3 Length=75.3 units=m

New Line.18100436 Phases=3 Bus1=66093762858840671MT.1.2.3 Bus2=66095598858837919MT.1.2.3 Linecode=16512384H-3 Length=29.487 units=m

New Line.18100432 Phases=3 Bus1=66111194858804238MT.1.2.3 Bus2=66116137858788272MT.1.2.3 Linecode=16512384H-3 Length=167.137 units=m

New Line.18091551 Phases=3 Bus1=67864448857063050MT.1.2.3 Bus2=67876021857062811MT.1.2.3 Linecode=16512329H-1 Length=115.755 units=m

New Line.18091552 Phases=3 Bus1=67876021857062811MT.1.2.3 Bus2=67887435857062939MT.1.2.3 Linecode=16512329H-1 Length=114.147 units=m

New Line.18091553 Phases=3 Bus1=67887435857062939MT.1.2.3 Bus2=67899315857061879MT.1.2.3 Linecode=16512329H-1 Length=119.272 units=m

New Line.18091554 Phases=3 Bus1=67899315857061879MT.1.2.3 Bus2=67912930857062093MT.1.2.3 Linecode=16512329H-1 Length=136.167 units=m

New Line.18099493 Phases=3 Bus1=67029975859139961MT.1.2.3 Bus2=67036162859133415MT.1.2.3 Linecode=16512384H-3 Length=90.072 units=m

New Line.18099494 Phases=3 Bus1=67036162859133415MT.1.2.3 Bus2=67041773859127123MT.1.2.3 Linecode=16512384H-3 Length=84.305 units=m

New Line.18099497 Phases=3 Bus1=67353649859383225MT.1.2.3 Bus2=67364965859388212MT.1.2.3 Linecode=16512329H-3 Length=123.662 units=m

New Line.18099498 Phases=3 Bus1=67364965859388212MT.1.2.3 Bus2=67379993859396223MT.1.2.3 Linecode=16512329H-3 Length=170.299 units=m

New Line.18099499 Phases=3 Bus1=67400516859405878MT.1.2.3 Bus2=67411043859410607MT.1.2.3 Linecode=16512329H-3 Length=115.404 units=m

New Line.18099500 Phases=3 Bus1=67411043859410607MT.1.2.3 Bus2=67419986859414820MT.1.2.3 Linecode=16512329H-3 Length=98.857 units=m

New Line.18101788 Phases=3 Bus1=66191531857796439MT.1.2.3 Bus2=66180757857793369MT.1.2.3 Linecode=16512329H-3P Length=112.029 units=m

New Line.18101789 Phases=3 Bus1=66180757857793369MT.1.2.3 Bus2=66164433857789405MT.1.2.3 Linecode=16512329H-3P Length=164.294 units=m

New Line.18101790 Phases=3 Bus1=66164423857789255MT.1.2.3 Bus2=66163473857775361MT.1.2.3 Linecode=16512329H-1P Length=140.768 units=m

New Line.18101791 Phases=3 Bus1=66164433857789405MT.1.2.3 Bus2=66148862857786220MT.1.2.3 Linecode=16512329H-3P Length=158.934 units=m

New Line.18101792 Phases=3 Bus1=66148862857786220MT.1.2.3 Bus2=66133571857782544MT.1.2.3 Linecode=16512329H-3P Length=157.267 units=m

New Line.18102108 Phases=3 Bus1=67054723859414682MT.1.2.3 Bus2=67049945859410874MT.1.2.3 Linecode=16512329H-3 Length=59.224 units=m

New Line.18102109 Phases=3 Bus1=67164223859295665MT.1.2.3 Bus2=67176112859301087MT.1.2.3 Linecode=16512329H-3 Length=130.67 units=m

New Line.18102110 Phases=3 Bus1=67176112859301087MT.1.2.3 Bus2=67188349859307318MT.1.2.3 Linecode=16512329H-3 Length=137.321 units=m

New Line.18097299 Phases=3 Bus1=67794589856703854MT.1.2.3 Bus2=67798817856715011MT.1.2.3 Linecode=45225708H-1 Length=119.312 units=m

New Line.18097627 Phases=3 Bus1=67281460859350221MT.1.2.3 Bus2=67294213859356546MT.1.2.3 Linecode=16512329H-3 Length=138.623 units=m

New Line.18097628 Phases=3 Bus1=67294213859356546MT.1.2.3 Bus2=67306430859362316MT.1.2.3 Linecode=16512329H-3 Length=135.11 units=m

New Line.18097629 Phases=3 Bus1=67306430859362316MT.1.2.3 Bus2=67318173859367480MT.1.2.3 Linecode=16512329H-3 Length=128.283 units=m

New Line.18097296 Phases=3 Bus1=67774627856692843MT.1.2.3 Bus2=67784951856692871MT.1.2.3 Linecode=16512329H-1 Length=103.24 units=m

New Line.18097297 Phases=3 Bus1=67784951856692871MT.1.2.3 Bus2=67793808856693338MT.1.2.3 Linecode=16512329H-1 Length=88.693 units=m

New Line.18097298 Phases=3 Bus1=67793808856693338MT.1.2.3 Bus2=67794589856703854MT.1.2.3 Linecode=45225708H-1 Length=103.481 units=m

New Line.13097699 Phases=3 Bus1=65550374858975776MT.1.2.3 Bus2=65548271858966047MT.1.2.3 Linecode=16512329H-3 Length=97.439 units=m

New Line.13097700 Phases=3 Bus1=65548271858966047MT.1.2.3 Bus2=65545462858955649MT.1.2.3 Linecode=16512329H-3 Length=107.707 units=m

New Line.13097701 Phases=3 Bus1=65545462858955649MT.1.2.3 Bus2=65543801858945028MT.1.2.3 Linecode=16512329H-3 Length=107.501 units=m

New Line.13096774 Phases=3 Bus1=64153616860881294MT.1.2.3 Bus2=64159628860877351MT.1.2.3 Linecode=16512375H-3 Length=71.897 units=m

New Line.13096775 Phases=3 Bus1=64148459860884540MT.1.2.3 Bus2=64153616860881294MT.1.2.3 Linecode=16512375H-3 Length=60.935 units=m

New Line.13096776 Phases=3 Bus1=64143709860887807MT.1.2.3 Bus2=64148459860884540MT.1.2.3 Linecode=16512375H-3 Length=57.65 units=m

New Line.13096777 Phases=3 Bus1=64138472860890861MT.1.2.3 Bus2=64143709860887807MT.1.2.3 Linecode=16512375H-3 Length=60.624 units=m

New Line.13096778 Phases=3 Bus1=64133391860893824MT.1.2.3 Bus2=64138472860890861MT.1.2.3 Linecode=16512375H-3 Length=58.818 units=m

New Line.13096779 Phases=3 Bus1=64128153860897128MT.1.2.3 Bus2=64133391860893824MT.1.2.3 Linecode=16512375H-3 Length=61.93 units=m

New Line.13096780 Phases=3 Bus1=64123237860900916MT.1.2.3 Bus2=64128153860897128MT.1.2.3 Linecode=16512375H-3 Length=62.061 units=m

New Line.13096781 Phases=3 Bus1=64117791860904458MT.1.2.3 Bus2=64123237860900916MT.1.2.3 Linecode=16512375H-3 Length=64.965 units=m

New Line.13096782 Phases=3 Bus1=64112859860907635MT.1.2.3 Bus2=64117791860904458MT.1.2.3 Linecode=16512375H-3 Length=55.336 units=m

New Line.13096783 Phases=3 Bus1=64107952860910566MT.1.2.3 Bus2=64112859860907635MT.1.2.3 Linecode=16512375H-3 Length=57.157 units=m

New Line.13096784 Phases=3 Bus1=64102975860913739MT.1.2.3 Bus2=64107952860910566MT.1.2.3 Linecode=16512375H-3 Length=59.024 units=m

New Line.13096785 Phases=3 Bus1=64097888860917168MT.1.2.3 Bus2=64102975860913739MT.1.2.3 Linecode=16512375H-3 Length=61.348 units=m

New Line.13096786 Phases=3 Bus1=64092677860919997MT.1.2.3 Bus2=64097888860917168MT.1.2.3 Linecode=16512375H-3 Length=59.294 units=m

New Line.13096787 Phases=3 Bus1=64081869860926383MT.1.2.3 Bus2=64087255860923208MT.1.2.3 Linecode=16512375H-3 Length=60.682 units=m

New Line.13096788 Phases=3 Bus1=64087255860923208MT.1.2.3 Bus2=64092677860919997MT.1.2.3 Linecode=16512375H-3 Length=63.015 units=m

New Line.13096789 Phases=3 Bus1=64228225860833939MT.1.2.3 Bus2=64233347860831008MT.1.2.3 Linecode=16512375H-3 Length=59.013 units=m

New Line.13096773 Phases=3 Bus1=64159628860877351MT.1.2.3 Bus2=64163855860874415MT.1.2.3 Linecode=16512375H-3 Length=51.466 units=m

New Line.13096767 Phases=3 Bus1=64189175860858488MT.1.2.3 Bus2=64194253860855586MT.1.2.3 Linecode=16512375H-3 Length=58.487 units=m

New Line.13096768 Phases=3 Bus1=64184229860861520MT.1.2.3 Bus2=64189175860858488MT.1.2.3 Linecode=16512375H-3 Length=58.014 units=m

New Line.13096769 Phases=3 Bus1=64178611860865101MT.1.2.3 Bus2=64184229860861520MT.1.2.3 Linecode=16512375H-3 Length=66.622 units=m

New Line.13096770 Phases=3 Bus1=64173853860867939MT.1.2.3 Bus2=64178611860865101MT.1.2.3 Linecode=16512375H-3 Length=55.401 units=m

New Line.13096771 Phases=3 Bus1=64168708860871179MT.1.2.3 Bus2=64173853860867939MT.1.2.3 Linecode=16512375H-3 Length=60.802 units=m

New Line.13096772 Phases=3 Bus1=64163855860874415MT.1.2.3 Bus2=64168708860871179MT.1.2.3 Linecode=16512375H-3 Length=58.329 units=m

New Line.13097939 Phases=3 Bus1=65566052858869295MT.1.2.3 Bus2=65568192858861699MT.1.2.3 Linecode=16512329H-3 Length=78.917 units=m

New Line.13097940 Phases=3 Bus1=65568192858861699MT.1.2.3 Bus2=65572136858852445MT.1.2.3 Linecode=16512329H-3 Length=100.594 units=m

New Line.13097941 Phases=3 Bus1=65572136858852445MT.1.2.3 Bus2=65563442858851238MT.1.2.3 Linecode=16512329H-3 Length=84.956 units=m

New Line.13097942 Phases=3 Bus1=65563442858851238MT.1.2.3 Bus2=65554503858849643MT.1.2.3 Linecode=16512329H-3 Length=90.802 units=m

New Line.13097943 Phases=3 Bus1=65554503858849643MT.1.2.3 Bus2=65545593858847748MT.1.2.3 Linecode=16512329H-3 Length=91.093 units=m

New Line.13097944 Phases=3 Bus1=65529901858839953MT.1.2.3 Bus2=65526130858836017MT.1.2.3 Linecode=16512329H-3 Length=54.509 units=m

New Line.13097945 Phases=3 Bus1=65545593858847748MT.1.2.3 Bus2=65534700858845773MT.1.2.3 Linecode=16512329H-3 Length=110.706 units=m

New Line.13097946 Phases=3 Bus1=65534700858845773MT.1.2.3 Bus2=65529901858839953MT.1.2.3 Linecode=16512329H-3 Length=72.27 units=m

New Line.13097931 Phases=3 Bus1=65543801858945028MT.1.2.3 Bus2=65546374858935230MT.1.2.3 Linecode=16512329H-3 Length=98.685 units=m

New Line.13097932 Phases=3 Bus1=65546374858935230MT.1.2.3 Bus2=65549774858925394MT.1.2.3 Linecode=16512329H-3 Length=104.071 units=m

New Line.13097933 Phases=3 Bus1=65549774858925394MT.1.2.3 Bus2=65552779858915712MT.1.2.3 Linecode=16512329H-3 Length=101.376 units=m

New Line.13097934 Phases=3 Bus1=65552779858915712MT.1.2.3 Bus2=65554996858906089MT.1.2.3 Linecode=16512329H-3 Length=98.751 units=m

New Line.13097935 Phases=3 Bus1=65554996858906089MT.1.2.3 Bus2=65557862858896623MT.1.2.3 Linecode=16512329H-3 Length=98.904 units=m

New Line.13097936 Phases=3 Bus1=65557862858896623MT.1.2.3 Bus2=65560705858886900MT.1.2.3 Linecode=16512329H-3 Length=101.301 units=m

New Line.13097937 Phases=3 Bus1=65560705858886900MT.1.2.3 Bus2=65563530858877296MT.1.2.3 Linecode=16512329H-3 Length=100.109 units=m

New Line.13097938 Phases=3 Bus1=65563530858877296MT.1.2.3 Bus2=65566052858869295MT.1.2.3 Linecode=16512329H-3 Length=83.891 units=m

New Line.15244000 Phases=3 Bus1=68212645858417153MT.1.2.3 Bus2=68212550858418524MT.1.2.3 Linecode=16512329H-3P Length=11.936 units=m

New Line.18108625 Phases=3 Bus1=66209240858441866MT.1.2.3 Bus2=66213577858425376MT.1.2.3 Linecode=16512384H-3 Length=170.508 units=m

New Line.18108626 Phases=3 Bus1=66204704858458541MT.1.2.3 Bus2=66209240858441866MT.1.2.3 Linecode=16512384H-3 Length=172.809 units=m

New Line.18108627 Phases=3 Bus1=66200293858474938MT.1.2.3 Bus2=66204704858458541MT.1.2.3 Linecode=16512384H-3 Length=169.799 units=m

New Line.18108628 Phases=3 Bus1=66196081858491316MT.1.2.3 Bus2=66200293858474938MT.1.2.3 Linecode=16512384H-3 Length=169.109 units=m

New Line.13747637 Phases=3 Bus1=67781977857919421MT.1.2.3 Bus2=67776003857919142MT.1.2.3 Linecode=16512329H-3 Length=61.307 units=m

New Line.15167536 Phases=3 Bus1=69145882857095699MT.1.2.3 Bus2=69150009857092306MT.1.2.3 Linecode=16512329H-1 Length=53.427 units=m

New Line.14473421 Phases=3 Bus1=69097081858906560MT.1.2.3 Bus2=69092589858918926MT.1.2.3 Linecode=16512329H-1 Length=128.567 units=m

New Line.14473422 Phases=3 Bus1=69099125858896706MT.1.2.3 Bus2=69097081858906560MT.1.2.3 Linecode=16512329H-1 Length=100.638 units=m

New Line.14473423 Phases=3 Bus1=69100421858886317MT.1.2.3 Bus2=69099125858896706MT.1.2.3 Linecode=16512329H-1 Length=104.695 units=m

New Line.14473424 Phases=3 Bus1=69103687858865504MT.1.2.3 Bus2=69101124858875382MT.1.2.3 Linecode=16512329H-1 Length=103.55 units=m

New Line.14473425 Phases=3 Bus1=69101124858875382MT.1.2.3 Bus2=69100421858886317MT.1.2.3 Linecode=16512329H-1 Length=109.576 units=m

New Line.13107453 Phases=3 Bus1=65980813859371380MT.1.2.3 Bus2=65987342859372897MT.1.2.3 Linecode=16512384H-3 Length=67.029 units=m

New Line.13107454 Phases=3 Bus1=65987342859372897MT.1.2.3 Bus2=65993693859374603MT.1.2.3 Linecode=16512384H-3 Length=65.761 units=m

New Line.13107455 Phases=3 Bus1=65968003859368393MT.1.2.3 Bus2=65974962859369838MT.1.2.3 Linecode=16512384H-3 Length=71.074 units=m

New Line.13107456 Phases=3 Bus1=65974962859369838MT.1.2.3 Bus2=65980813859371380MT.1.2.3 Linecode=16512384H-3 Length=60.508 units=m

New Line.13107457 Phases=3 Bus1=65942282859362036MT.1.2.3 Bus2=65948523859363403MT.1.2.3 Linecode=16512384H-3 Length=63.89 units=m

New Line.13107458 Phases=3 Bus1=65948523859363403MT.1.2.3 Bus2=65955113859365195MT.1.2.3 Linecode=16512384H-3 Length=64.448 units=m

New Line.13107459 Phases=3 Bus1=65929506859358773MT.1.2.3 Bus2=65935727859359998MT.1.2.3 Linecode=16512384H-3 Length=63.405 units=m

New Line.13107460 Phases=3 Bus1=65935727859359998MT.1.2.3 Bus2=65942282859362036MT.1.2.3 Linecode=16512384H-3 Length=68.645 units=m

New Line.13107461 Phases=3 Bus1=65916268859355279MT.1.2.3 Bus2=65922595859356869MT.1.2.3 Linecode=16512384H-3 Length=65.237 units=m

New Line.13107462 Phases=3 Bus1=65922595859356869MT.1.2.3 Bus2=65929506859358773MT.1.2.3 Linecode=16512384H-3 Length=71.685 units=m

New Line.13107463 Phases=3 Bus1=65903715859352222MT.1.2.3 Bus2=65909590859353836MT.1.2.3 Linecode=16512384H-3 Length=60.927 units=m

New Line.13107464 Phases=3 Bus1=65909590859353836MT.1.2.3 Bus2=65916268859355279MT.1.2.3 Linecode=16512384H-3 Length=68.321 units=m

New Line.13107465 Phases=3 Bus1=65890511859348658MT.1.2.3 Bus2=65896517859350575MT.1.2.3 Linecode=16512384H-3 Length=63.045 units=m

New Line.13107466 Phases=3 Bus1=65896517859350575MT.1.2.3 Bus2=65903715859352222MT.1.2.3 Linecode=16512384H-3 Length=73.84 units=m

New Line.13107467 Phases=3 Bus1=65878201859345893MT.1.2.3 Bus2=65884463859347141MT.1.2.3 Linecode=16512384H-3 Length=63.852 units=m

New Line.13107468 Phases=3 Bus1=65884463859347141MT.1.2.3 Bus2=65890511859348658MT.1.2.3 Linecode=16512384H-3 Length=62.354 units=m

New Line.112288136 Phases=3 Bus1=65459080859975936MT.1.2.3 Bus2=65465535859966980MT.1.2.3 Linecode=16512384H-3 Length=110.398 units=m

New Line.18100840 Phases=3 Bus1=66229936858055267MT.1.2.3 Bus2=66236118858039903MT.1.2.3 Linecode=16512384H-3 Length=165.611 units=m

New Line.18100841 Phases=3 Bus1=66236118858039903MT.1.2.3 Bus2=66242114858024658MT.1.2.3 Linecode=16512384H-3 Length=163.818 units=m

New Line.18100842 Phases=3 Bus1=66242114858024658MT.1.2.3 Bus2=66248137858010470MT.1.2.3 Linecode=16512384H-3 Length=154.135 units=m

New Line.18100843 Phases=3 Bus1=66248137858010470MT.1.2.3 Bus2=66253162857995601MT.1.2.3 Linecode=16512384H-3 Length=156.952 units=m

New Line.18100844 Phases=3 Bus1=66253162857995601MT.1.2.3 Bus2=66259080857979740MT.1.2.3 Linecode=16512384H-3 Length=169.291 units=m

New Line.18100845 Phases=3 Bus1=66259080857979740MT.1.2.3 Bus2=66263766857966823MT.1.2.3 Linecode=16512384H-3 Length=137.407 units=m

New Line.18100839 Phases=3 Bus1=66224120858070877MT.1.2.3 Bus2=66229936858055267MT.1.2.3 Linecode=16512384H-3 Length=166.583 units=m

New Line.13362348 Phases=3 Bus1=67368842857693196MT.1.2.3 Bus2=67370549857687170MT.1.2.3 Linecode=16512384H-3 Length=58.988 units=m

New Line.13362349 Phases=3 Bus1=67240454857999892MT.1.2.3 Bus2=67243782857991642MT.1.2.3 Linecode=16512384H-3 Length=88.96 units=m

New Line.13362350 Phases=3 Bus1=67254417857967275MT.1.2.3 Bus2=67257917857958972MT.1.2.3 Linecode=16512384H-3 Length=90.105 units=m

New Line.13362351 Phases=3 Bus1=67260961857950530MT.1.2.3 Bus2=67264596857941968MT.1.2.3 Linecode=16512384H-3 Length=93.017 units=m

New Line.13362352 Phases=3 Bus1=67271588857925463MT.1.2.3 Bus2=67274702857917383MT.1.2.3 Linecode=16512384H-3 Length=86.593 units=m

New Line.13362353 Phases=3 Bus1=67327052857792778MT.1.2.3 Bus2=67329955857784158MT.1.2.3 Linecode=16512384H-3 Length=90.957 units=m

New Line.18165033 Phases=3 Bus1=67791297857835351MT.1.2.3 Bus2=67790462857845210MT.1.2.3 Linecode=16512329H-3 Length=98.943 units=m

New Line.15113737 Phases=3 Bus1=65343666860166132MT.1.2.3 Bus2=65343641860165973MT.1.2.3 Linecode=16512329H-3 Length=1.61 units=m

New Line.15113738 Phases=3 Bus1=66047846858590266MT.1.2.3 Bus2=66047813858590423MT.1.2.3 Linecode=16512329H-3 Length=1.604 units=m

New Line.15113739 Phases=3 Bus1=69103878858865314MT.1.2.3 Bus2=69103725858865359MT.1.2.3 Linecode=16512329H-1 Length=1.595 units=m

New Line.15113740 Phases=3 Bus1=65411877859705989MT.1.2.3 Bus2=65412005859706085MT.1.2.3 Linecode=16512329H-3 Length=1.6 units=m

New Line.15113748 Phases=3 Bus1=66675430858284507MT.1.2.3 Bus2=66675582858284559MT.1.2.3 Linecode=16512329H-1 Length=1.606 units=m

New Line.13402222 Phases=3 Bus1=68506834857524064MT.1.2.3 Bus2=68518875857526175MT.1.2.3 Linecode=16512329H-1 Length=122.246 units=m

New Line.13402223 Phases=3 Bus1=68755952857619048MT.1.2.3 Bus2=68747562857628209MT.1.2.3 Linecode=16512329H-1 Length=124.224 units=m

New Line.13402224 Phases=3 Bus1=68780088857573517MT.1.2.3 Bus2=68792750857576365MT.1.2.3 Linecode=16512329H-1 Length=129.783 units=m

New Line.13402225 Phases=3 Bus1=68721330857562899MT.1.2.3 Bus2=68733448857565111MT.1.2.3 Linecode=16512329H-1 Length=123.182 units=m

New Line.13402226 Phases=3 Bus1=68649699857550267MT.1.2.3 Bus2=68661887857552238MT.1.2.3 Linecode=16512329H-1 Length=123.463 units=m

New Line.13402227 Phases=3 Bus1=68593041857539367MT.1.2.3 Bus2=68605104857541543MT.1.2.3 Linecode=16512329H-1 Length=122.577 units=m

New Line.13402228 Phases=3 Bus1=68518875857526175MT.1.2.3 Bus2=68531033857528430MT.1.2.3 Linecode=16512329H-1 Length=123.654 units=m

New Line.13402229 Phases=3 Bus1=68498901857516711MT.1.2.3 Bus2=68497311857522518MT.1.2.3 Linecode=16512329H-1 Length=60.207 units=m

New Line.13402230 Phases=3 Bus1=68707216857674753MT.1.2.3 Bus2=68699568857682599MT.1.2.3 Linecode=16512329H-1 Length=109.568 units=m

New Line.13402231 Phases=3 Bus1=68739603857637474MT.1.2.3 Bus2=68731436857646955MT.1.2.3 Linecode=16512329H-1 Length=125.136 units=m

New Line.13402232 Phases=3 Bus1=68771924857600374MT.1.2.3 Bus2=68763180857609765MT.1.2.3 Linecode=16512329H-1 Length=128.315 units=m

New Line.13466625 Phases=3 Bus1=66815581859383100MT.1.2.3 Bus2=66821757859376011MT.1.2.3 Linecode=16512384H-3 Length=94.02 units=m

New Line.13466626 Phases=3 Bus1=66833431859362626MT.1.2.3 Bus2=66839195859355958MT.1.2.3 Linecode=16512384H-3 Length=88.14 units=m

New Line.13466627 Phases=3 Bus1=66850930859342658MT.1.2.3 Bus2=66856758859335664MT.1.2.3 Linecode=16512384H-3 Length=91.039 units=m

New Line.13466628 Phases=3 Bus1=66856758859335664MT.1.2.3 Bus2=66861628859330181MT.1.2.3 Linecode=16512384H-3 Length=69.657 units=m

New Line.13466629 Phases=3 Bus1=66866590859324436MT.1.2.3 Bus2=66872723859317647MT.1.2.3 Linecode=16512384H-3 Length=91.49 units=m

New Line.13466630 Phases=3 Bus1=67185525858543880MT.1.2.3 Bus2=67185658858537187MT.1.2.3 Linecode=16512384H-3 Length=66.943 units=m

New Line.13466631 Phases=3 Bus1=67186084858530327MT.1.2.3 Bus2=67186633858523682MT.1.2.3 Linecode=16512384H-3 Length=66.676 units=m

New Line.13466632 Phases=3 Bus1=67186454858517169MT.1.2.3 Bus2=67187397858510610MT.1.2.3 Linecode=16512384H-3 Length=66.264 units=m

New Line.13466633 Phases=3 Bus1=67187233858504388MT.1.2.3 Bus2=67187119858497979MT.1.2.3 Linecode=16512384H-3 Length=64.1 units=m

New Line.13466618 Phases=3 Bus1=67180873858647384MT.1.2.3 Bus2=67181229858641462MT.1.2.3 Linecode=16512384H-3 Length=59.327 units=m

New Line.13466619 Phases=3 Bus1=67720475858501919MT.1.2.3 Bus2=67716576858501197MT.1.2.3 Linecode=16512329H-3 Length=39.653 units=m

New Line.13466620 Phases=3 Bus1=67231833858004310MT.1.2.3 Bus2=67226428858000864MT.1.2.3 Linecode=16512329H-3 Length=65.599 units=m

New Line.13466621 Phases=3 Bus1=67161101858787399MT.1.2.3 Bus2=67161698858779920MT.1.2.3 Linecode=16512384H-3 Length=75.028 units=m

New Line.13466622 Phases=3 Bus1=67194430858182311MT.1.2.3 Bus2=67194332858175180MT.1.2.3 Linecode=16512384H-3 Length=71.317 units=m

New Line.13466623 Phases=3 Bus1=66786272859417337MT.1.2.3 Bus2=66792183859409891MT.1.2.3 Linecode=16512384H-3 Length=91.363 units=m

New Line.13466624 Phases=3 Bus1=66798062859403169MT.1.2.3 Bus2=66803850859396472MT.1.2.3 Linecode=16512384H-3 Length=88.516 units=m

New Line.13150631 Phases=3 Bus1=68218991858415711MT.1.2.3 Bus2=68229394858416181MT.1.2.3 Linecode=16512329H-3 Length=104.136 units=m

New Line.13150632 Phases=3 Bus1=68229394858416181MT.1.2.3 Bus2=68239684858416895MT.1.2.3 Linecode=16512329H-3 Length=103.147 units=m

New Line.13150633 Phases=3 Bus1=68239684858416895MT.1.2.3 Bus2=68250048858417638MT.1.2.3 Linecode=16512329H-3 Length=103.906 units=m

New Line.13150634 Phases=3 Bus1=68250048858417638MT.1.2.3 Bus2=68260278858417946MT.1.2.3 Linecode=16512329H-3 Length=102.346 units=m

New Line.13150635 Phases=3 Bus1=68260278858417946MT.1.2.3 Bus2=68270802858418790MT.1.2.3 Linecode=16512329H-3 Length=105.578 units=m

New Line.13150636 Phases=3 Bus1=68270802858418790MT.1.2.3 Bus2=68281072858419556MT.1.2.3 Linecode=16512329H-3 Length=102.985 units=m

New Line.17891785 Phases=3 Bus1=66474048859615310MT.1.2.3 Bus2=66469998859625252MT.1.2.3 Linecode=16512329H-3 Length=107.353 units=m

New Line.17891786 Phases=3 Bus1=66469998859625252MT.1.2.3 Bus2=66465751859635914MT.1.2.3 Linecode=16512329H-3 Length=114.767 units=m
